_rank2
     RDKit          3D

 27 29  0  0  0  0  0  0  0  0999 V2000
   11.6222    7.9986   -2.3109 C   0  0  0  0  0  0  0  0  0  0  0  0
   10.2740    7.7591   -2.9158 C   0  0  0  0  0  0  0  0  0  0  0  0
    9.9314    6.4705   -3.3069 C   0  0  0  0  0  0  0  0  0  0  0  0
    8.6923    6.2516   -3.8629 C   0  0  0  0  0  0  0  0  0  0  0  0
    7.8529    7.3347   -4.0016 C   0  0  0  0  0  0  0  0  0  0  0  0
    8.2225    8.6211   -3.5996 C   0  0  0  0  0  0  0  0  0  0  0  0
    9.4380    8.8019   -3.0608 N   0  0  0  0  0  0  0  0  0  0  0  0
    7.4528    9.8259   -3.6846 N   0  0  0  0  0  0  0  0  0  0  0  0
    6.0075    9.9372   -3.7308 C   0  0  2  0  0  0  0  0  0  0  0  0
    5.4440    9.4087   -2.4075 C   0  0  0  0  0  0  0  0  0  0  0  0
    4.8400   10.5057   -1.5907 C   0  0  1  0  0  0  0  0  0  0  0  0
    4.3165    9.9628   -0.4377 F   0  0  0  0  0  0  0  0  0  0  0  0
    5.7977   11.4270   -1.2263 F   0  0  0  0  0  0  0  0  0  0  0  0
    5.4110    9.1322   -4.8164 C   0  0  0  0  0  0  0  0  0  0  0  0
    4.4319    9.8082   -5.5870 N   0  0  0  0  0  0  0  0  0  0  0  0
    3.6363    9.0362   -6.4907 C   0  0  0  0  0  0  0  0  0  0  0  0
    2.3035    9.3223   -6.7350 C   0  0  0  0  0  0  0  0  0  0  0  0
    1.5451    8.5707   -7.6087 C   0  0  0  0  0  0  0  0  0  0  0  0
    0.1075    8.8656   -7.8834 C   0  0  0  0  0  0  0  0  0  0  0  0
    2.1820    7.5078   -8.2363 C   0  0  0  0  0  0  0  0  0  0  0  0
    1.2184    6.5522   -9.3470 Cl  0  0  0  0  0  0  0  0  0  0  0  0
    3.5069    7.2242   -7.9928 C   0  0  0  0  0  0  0  0  0  0  0  0
    4.2576    7.9815   -7.1172 C   0  0  0  0  0  0  0  0  0  0  0  0
    5.5678    7.6734   -6.8986 F   0  0  0  0  0  0  0  0  0  0  0  0
    5.6280    7.9196   -5.1883 N   0  0  0  0  0  0  0  0  0  0  0  0
    6.5613    6.9830   -4.6093 C   0  0  0  0  0  0  0  0  0  0  0  0
    6.3015    5.7754   -4.5982 O   0  0  0  0  0  0  0  0  0  0  0  0
  1  2  1  6
  2  3  2  0
  3  4  1  0
  4  5  2  0
  5  6  1  0
  6  7  2  0
  6  8  1  0
  9  8  1  1
  9 10  1  0
 10 11  1  1
 11 12  1  1
 11 13  1  0
  9 14  1  0
 14 15  1  0
 15 16  1  0
 16 17  2  0
 17 18  1  0
 19 18  1  1
 18 20  2  0
 20 21  1  0
 20 22  1  0
 22 23  2  0
 23 24  1  0
 14 25  2  0
 25 26  1  0
 26 27  2  0
  7  2  1  0
 23 16  1  0
 26  5  1  0
M  END
$$$$
