_rank9
     RDKit          3D

 27 29  0  0  0  0  0  0  0  0999 V2000
    8.7665   12.5519   -0.2693 C   0  0  0  0  0  0  0  0  0  0  0  0
    8.5151   11.3544   -1.1317 C   0  0  0  0  0  0  0  0  0  0  0  0
    9.4440   10.3210   -1.1352 C   0  0  0  0  0  0  0  0  0  0  0  0
    9.2120    9.2212   -1.9284 C   0  0  0  0  0  0  0  0  0  0  0  0
    8.0593    9.2075   -2.6820 C   0  0  0  0  0  0  0  0  0  0  0  0
    7.1411   10.2607   -2.6598 C   0  0  0  0  0  0  0  0  0  0  0  0
    7.3961   11.3194   -1.8759 N   0  0  0  0  0  0  0  0  0  0  0  0
    5.9124   10.3738   -3.3868 N   0  0  0  0  0  0  0  0  0  0  0  0
    5.1013    9.2887   -3.9047 C   0  0  2  0  0  0  0  0  0  0  0  0
    4.5805    8.4715   -2.7177 C   0  0  0  0  0  0  0  0  0  0  0  0
    3.3425    9.0754   -2.1364 C   0  0  1  0  0  0  0  0  0  0  0  0
    2.4865    9.4065   -3.1640 F   0  0  0  0  0  0  0  0  0  0  0  0
    2.6946    8.1721   -1.3221 F   0  0  0  0  0  0  0  0  0  0  0  0
    5.8690    8.3694   -4.7695 C   0  0  0  0  0  0  0  0  0  0  0  0
    5.2269    8.0232   -5.9849 N   0  0  0  0  0  0  0  0  0  0  0  0
    5.5646    6.7728   -6.5917 C   0  0  0  0  0  0  0  0  0  0  0  0
    6.8755    6.3530   -6.7441 C   0  0  0  0  0  0  0  0  0  0  0  0
    7.1901    5.1447   -7.3312 C   0  0  0  0  0  0  0  0  0  0  0  0
    8.5976    4.6771   -7.5030 C   0  0  0  0  0  0  0  0  0  0  0  0
    6.1269    4.3635   -7.7651 C   0  0  0  0  0  0  0  0  0  0  0  0
    6.5262    2.8275   -8.5114 Cl  0  0  0  0  0  0  0  0  0  0  0  0
    4.8241    4.7817   -7.6132 C   0  0  0  0  0  0  0  0  0  0  0  0
    4.5190    5.9918   -7.0248 C   0  0  0  0  0  0  0  0  0  0  0  0
    3.2177    6.3761   -6.8896 F   0  0  0  0  0  0  0  0  0  0  0  0
    7.0256    7.8276   -4.6128 N   0  0  0  0  0  0  0  0  0  0  0  0
    7.9194    7.9879   -3.4908 C   0  0  0  0  0  0  0  0  0  0  0  0
    8.6483    7.0541   -3.1405 O   0  0  0  0  0  0  0  0  0  0  0  0
  1  2  1  6
  2  3  2  0
  3  4  1  0
  4  5  2  0
  5  6  1  0
  6  7  2  0
  6  8  1  0
  9  8  1  1
  9 10  1  0
 10 11  1  1
 11 12  1  6
 11 13  1  0
  9 14  1  0
 14 15  1  0
 15 16  1  0
 16 17  2  0
 17 18  1  0
 19 18  1  1
 18 20  2  0
 20 21  1  0
 20 22  1  0
 22 23  2  0
 23 24  1  0
 14 25  2  0
 25 26  1  0
 26 27  2  0
  7  2  1  0
 23 16  1  0
 26  5  1  0
M  END
$$$$
