_rank4
     RDKit          3D

 30 32  0  0  0  0  0  0  0  0999 V2000
    9.9175    6.1456   -4.9550 C   0  0  0  0  0  0  0  0  0  0  0  0
    8.6263    6.3442   -4.2165 C   0  0  0  0  0  0  0  0  0  0  0  0
    8.4688    7.7984   -3.7525 C   0  0  2  0  0  0  0  0  0  0  0  0
    7.7080    7.8561   -2.5507 N   0  0  0  0  0  0  0  0  0  0  0  0
    6.4012    8.2814   -2.1844 C   0  0  0  0  0  0  0  0  0  0  0  0
    5.9541    7.8777   -1.0627 O   0  0  0  0  0  0  0  0  0  0  0  0
    5.5690    9.1166   -2.9752 N   0  0  0  0  0  0  0  0  0  0  0  0
    4.4494    9.6984   -2.2653 C   0  0  0  0  0  0  0  0  0  0  0  0
    4.8507   10.8105   -1.3663 C   0  0  0  0  0  0  0  0  0  0  0  0
    5.7488   10.6538   -0.3462 C   0  0  0  0  0  0  0  0  0  0  0  0
    6.1193   11.7047    0.4931 C   0  0  0  0  0  0  0  0  0  0  0  0
    7.0090   11.5455    1.5021 F   0  0  0  0  0  0  0  0  0  0  0  0
    5.5768   12.9588    0.3118 C   0  0  0  0  0  0  0  0  0  0  0  0
    4.6693   13.1368   -0.7116 C   0  0  0  0  0  0  0  0  0  0  0  0
    4.1395   14.3766   -0.8830 F   0  0  0  0  0  0  0  0  0  0  0  0
    4.3088   12.0707   -1.5445 C   0  0  0  0  0  0  0  0  0  0  0  0
    5.6930    9.4521   -4.3655 C   0  0  0  0  0  0  0  0  0  0  0  0
    4.6861    9.9435   -4.9218 O   0  0  0  0  0  0  0  0  0  0  0  0
    6.8273    9.2954   -5.2000 N   0  0  0  0  0  0  0  0  0  0  0  0
    6.7185    9.8225   -6.5223 C   0  0  0  0  0  0  0  0  0  0  0  0
    6.3463    8.8190   -7.5373 C   0  0  0  0  0  0  0  0  0  0  0  0
    5.7436    7.6228   -7.2451 C   0  0  0  0  0  0  0  0  0  0  0  0
    5.4254    6.7307   -8.2683 C   0  0  0  0  0  0  0  0  0  0  0  0
    4.8318    5.5463   -8.0091 F   0  0  0  0  0  0  0  0  0  0  0  0
    5.7015    7.0154   -9.5902 C   0  0  0  0  0  0  0  0  0  0  0  0
    6.3130    8.2289   -9.8876 C   0  0  0  0  0  0  0  0  0  0  0  0
    6.6245    9.1089   -8.8560 C   0  0  0  0  0  0  0  0  0  0  0  0
    7.3981   10.6234   -9.3254 Cl  0  0  0  0  0  0  0  0  0  0  0  0
    8.0436    8.6700   -4.8424 C   0  0  0  0  0  0  0  0  0  0  0  0
    8.9781    8.9377   -5.6733 O   0  0  0  0  0  0  0  0  0  0  0  0
  2  1  1  6
  2  3  1  0
  3  4  1  1
  4  5  1  0
  5  6  2  0
  5  7  1  0
  8  7  1  1
  8  9  1  0
  9 10  2  0
 10 11  1  0
 11 12  1  0
 11 13  2  0
 13 14  1  0
 14 15  1  0
 14 16  2  0
  7 17  1  0
 17 18  2  0
 17 19  1  0
 20 19  1  1
 20 21  1  0
 21 22  2  0
 22 23  1  0
 23 24  1  0
 23 25  2  0
 25 26  1  0
 26 27  2  0
 27 28  1  0
 19 29  1  0
 29 30  2  0
 29  3  1  0
 16  9  1  0
 27 21  1  0
M  END
$$$$
