_rank2
     RDKit          3D

 30 32  0  0  0  0  0  0  0  0999 V2000
   11.2245    8.8962   -1.5931 C   0  0  0  0  0  0  0  0  0  0  0  0
   10.2432    9.7913   -2.2917 C   0  0  0  0  0  0  0  0  0  0  0  0
    8.8022    9.3068   -2.0836 C   0  0  2  0  0  0  0  0  0  0  0  0
    8.4901    8.2679   -3.0053 N   0  0  0  0  0  0  0  0  0  0  0  0
    7.6768    8.1366   -4.1647 C   0  0  0  0  0  0  0  0  0  0  0  0
    7.9016    7.1360   -4.9193 O   0  0  0  0  0  0  0  0  0  0  0  0
    6.6421    9.0352   -4.5353 N   0  0  0  0  0  0  0  0  0  0  0  0
    5.7307    8.5253   -5.5380 C   0  0  0  0  0  0  0  0  0  0  0  0
    4.3505    8.3384   -5.0220 C   0  0  0  0  0  0  0  0  0  0  0  0
    4.0618    8.2517   -3.6875 C   0  0  0  0  0  0  0  0  0  0  0  0
    2.7619    8.0760   -3.2126 C   0  0  0  0  0  0  0  0  0  0  0  0
    2.4801    7.9906   -1.8904 F   0  0  0  0  0  0  0  0  0  0  0  0
    1.7091    7.9830   -4.0974 C   0  0  0  0  0  0  0  0  0  0  0  0
    1.9800    8.0681   -5.4472 C   0  0  0  0  0  0  0  0  0  0  0  0
    0.9358    7.9754   -6.3122 F   0  0  0  0  0  0  0  0  0  0  0  0
    3.2909    8.2445   -5.9062 C   0  0  0  0  0  0  0  0  0  0  0  0
    6.3882   10.3628   -4.0516 C   0  0  0  0  0  0  0  0  0  0  0  0
    5.6224   11.0779   -4.7350 O   0  0  0  0  0  0  0  0  0  0  0  0
    6.9021   10.9752   -2.8818 N   0  0  0  0  0  0  0  0  0  0  0  0
    6.3931   12.2720   -2.5699 C   0  0  0  0  0  0  0  0  0  0  0  0
    5.6070   12.3218   -1.3228 C   0  0  0  0  0  0  0  0  0  0  0  0
    5.3829   11.2362   -0.5162 C   0  0  0  0  0  0  0  0  0  0  0  0
    4.6267   11.3726    0.6473 C   0  0  0  0  0  0  0  0  0  0  0  0
    4.3903   10.3206    1.4596 F   0  0  0  0  0  0  0  0  0  0  0  0
    4.0858   12.5857    1.0223 C   0  0  0  0  0  0  0  0  0  0  0  0
    4.3127   13.6878    0.2044 C   0  0  0  0  0  0  0  0  0  0  0  0
    5.0692   13.5361   -0.9534 C   0  0  0  0  0  0  0  0  0  0  0  0
    5.3059   14.9866   -1.9296 Cl  0  0  0  0  0  0  0  0  0  0  0  0
    7.8637   10.4211   -2.0062 C   0  0  0  0  0  0  0  0  0  0  0  0
    7.9124   11.0503   -0.8940 O   0  0  0  0  0  0  0  0  0  0  0  0
  2  1  1  6
  2  3  1  0
  3  4  1  6
  4  5  1  0
  5  6  2  0
  5  7  1  0
  8  7  1  1
  8  9  1  0
  9 10  2  0
 10 11  1  0
 11 12  1  0
 11 13  2  0
 13 14  1  0
 14 15  1  0
 14 16  2  0
  7 17  1  0
 17 18  2  0
 17 19  1  0
 20 19  1  1
 20 21  1  0
 21 22  2  0
 22 23  1  0
 23 24  1  0
 23 25  2  0
 25 26  1  0
 26 27  2  0
 27 28  1  0
 19 29  1  0
 29 30  2  0
 29  3  1  0
 16  9  1  0
 27 21  1  0
M  END
$$$$
