_rank7
     RDKit          3D

 30 32  0  0  0  0  0  0  0  0999 V2000
    9.4650    7.9502   -0.1681 C   0  0  0  0  0  0  0  0  0  0  0  0
    9.1714    9.2641   -0.8311 C   0  0  0  0  0  0  0  0  0  0  0  0
    9.3290    9.1661   -2.3543 C   0  0  2  0  0  0  0  0  0  0  0  0
    9.4349   10.4651   -2.9268 N   0  0  0  0  0  0  0  0  0  0  0  0
    8.6062   11.3064   -3.7194 C   0  0  0  0  0  0  0  0  0  0  0  0
    8.9138   12.5409   -3.7696 O   0  0  0  0  0  0  0  0  0  0  0  0
    7.4709   10.8694   -4.4512 N   0  0  0  0  0  0  0  0  0  0  0  0
    6.9981   11.8069   -5.4479 C   0  0  0  0  0  0  0  0  0  0  0  0
    5.7889   12.5515   -5.0126 C   0  0  0  0  0  0  0  0  0  0  0  0
    5.7895   13.4123   -3.9491 C   0  0  0  0  0  0  0  0  0  0  0  0
    4.6483   14.1071   -3.5478 C   0  0  0  0  0  0  0  0  0  0  0  0
    4.6529   14.9586   -2.4943 F   0  0  0  0  0  0  0  0  0  0  0  0
    3.4617   13.9402   -4.2290 C   0  0  0  0  0  0  0  0  0  0  0  0
    3.4411   13.0764   -5.3042 C   0  0  0  0  0  0  0  0  0  0  0  0
    2.2668   12.9180   -5.9699 F   0  0  0  0  0  0  0  0  0  0  0  0
    4.5960   12.3871   -5.6932 C   0  0  0  0  0  0  0  0  0  0  0  0
    6.7434    9.6376   -4.3312 C   0  0  0  0  0  0  0  0  0  0  0  0
    5.6058    9.5986   -4.8501 O   0  0  0  0  0  0  0  0  0  0  0  0
    7.1558    8.4430   -3.6906 N   0  0  0  0  0  0  0  0  0  0  0  0
    6.2829    7.3208   -3.8203 C   0  0  0  0  0  0  0  0  0  0  0  0
    6.6948    6.3600   -4.8610 C   0  0  0  0  0  0  0  0  0  0  0  0
    7.8321    6.4904   -5.6152 C   0  0  0  0  0  0  0  0  0  0  0  0
    8.1463    5.5336   -6.5795 C   0  0  0  0  0  0  0  0  0  0  0  0
    9.2595    5.6371   -7.3362 F   0  0  0  0  0  0  0  0  0  0  0  0
    7.3366    4.4390   -6.8054 C   0  0  0  0  0  0  0  0  0  0  0  0
    6.1824    4.3059   -6.0406 C   0  0  0  0  0  0  0  0  0  0  0  0
    5.8821    5.2687   -5.0821 C   0  0  0  0  0  0  0  0  0  0  0  0
    4.3993    5.0191   -4.1593 Cl  0  0  0  0  0  0  0  0  0  0  0  0
    8.3423    8.2667   -2.9426 C   0  0  0  0  0  0  0  0  0  0  0  0
    8.5986    7.0299   -2.7422 O   0  0  0  0  0  0  0  0  0  0  0  0
  2  1  1  6
  2  3  1  0
  3  4  1  6
  4  5  1  0
  5  6  2  0
  5  7  1  0
  8  7  1  1
  8  9  1  0
  9 10  2  0
 10 11  1  0
 11 12  1  0
 11 13  2  0
 13 14  1  0
 14 15  1  0
 14 16  2  0
  7 17  1  0
 17 18  2  0
 17 19  1  0
 20 19  1  1
 20 21  1  0
 21 22  2  0
 22 23  1  0
 23 24  1  0
 23 25  2  0
 25 26  1  0
 26 27  2  0
 27 28  1  0
 19 29  1  0
 29 30  2  0
 29  3  1  0
 16  9  1  0
 27 21  1  0
M  END
$$$$
