_rank5
     RDKit          3D

 30 32  0  0  0  0  0  0  0  0999 V2000
    4.0664   11.3431   -2.3403 C   0  0  0  0  0  0  0  0  0  0  0  0
    5.1874   10.3457   -2.3637 C   0  0  0  0  0  0  0  0  0  0  0  0
    4.7204    8.9969   -2.9268 C   0  0  2  0  0  0  0  0  0  0  0  0
    5.6697    7.9790   -2.6282 N   0  0  0  0  0  0  0  0  0  0  0  0
    6.6217    7.2185   -3.3618 C   0  0  0  0  0  0  0  0  0  0  0  0
    7.5265    6.6230   -2.6925 O   0  0  0  0  0  0  0  0  0  0  0  0
    6.6330    7.0789   -4.7744 N   0  0  0  0  0  0  0  0  0  0  0  0
    7.4586    5.9965   -5.2671 C   0  0  0  0  0  0  0  0  0  0  0  0
    6.9368    4.6567   -4.8948 C   0  0  0  0  0  0  0  0  0  0  0  0
    5.7425    4.1712   -5.3527 C   0  0  0  0  0  0  0  0  0  0  0  0
    5.2607    2.9112   -4.9970 C   0  0  0  0  0  0  0  0  0  0  0  0
    4.0777    2.4340   -5.4525 F   0  0  0  0  0  0  0  0  0  0  0  0
    5.9936    2.1031   -4.1544 C   0  0  0  0  0  0  0  0  0  0  0  0
    7.2006    2.5751   -3.6822 C   0  0  0  0  0  0  0  0  0  0  0  0
    7.9164    1.7716   -2.8520 F   0  0  0  0  0  0  0  0  0  0  0  0
    7.6688    3.8424   -4.0495 C   0  0  0  0  0  0  0  0  0  0  0  0
    5.9425    7.8608   -5.7607 C   0  0  0  0  0  0  0  0  0  0  0  0
    6.3397    7.7608   -6.9427 O   0  0  0  0  0  0  0  0  0  0  0  0
    4.8525    8.7441   -5.5631 N   0  0  0  0  0  0  0  0  0  0  0  0
    4.2739    9.3096   -6.7393 C   0  0  0  0  0  0  0  0  0  0  0  0
    3.1010    8.5706   -7.2433 C   0  0  0  0  0  0  0  0  0  0  0  0
    2.5062    7.5319   -6.5747 C   0  0  0  0  0  0  0  0  0  0  0  0
    1.3988    6.8877   -7.1250 C   0  0  0  0  0  0  0  0  0  0  0  0
    0.7939    5.8624   -6.4884 F   0  0  0  0  0  0  0  0  0  0  0  0
    0.8706    7.2665   -8.3424 C   0  0  0  0  0  0  0  0  0  0  0  0
    1.4735    8.3202   -9.0215 C   0  0  0  0  0  0  0  0  0  0  0  0
    2.5778    8.9534   -8.4599 C   0  0  0  0  0  0  0  0  0  0  0  0
    3.2776   10.2789   -9.3905 Cl  0  0  0  0  0  0  0  0  0  0  0  0
    4.2938    9.1108   -4.3173 C   0  0  0  0  0  0  0  0  0  0  0  0
    3.1518    9.6699   -4.4545 O   0  0  0  0  0  0  0  0  0  0  0  0
  2  1  1  6
  2  3  1  0
  3  4  1  6
  4  5  1  0
  5  6  2  0
  5  7  1  0
  8  7  1  1
  8  9  1  0
  9 10  2  0
 10 11  1  0
 11 12  1  0
 11 13  2  0
 13 14  1  0
 14 15  1  0
 14 16  2  0
  7 17  1  0
 17 18  2  0
 17 19  1  0
 20 19  1  1
 20 21  1  0
 21 22  2  0
 22 23  1  0
 23 24  1  0
 23 25  2  0
 25 26  1  0
 26 27  2  0
 27 28  1  0
 19 29  1  0
 29 30  2  0
 29  3  1  0
 16  9  1  0
 27 21  1  0
M  END
$$$$
