_rank1
     RDKit          3D

 26 27  0  0  0  0  0  0  0  0999 V2000
    1.2479    6.7769   -5.3945 C   0  0  0  0  0  0  0  0  0  0  0  0
    1.9199    7.4792   -4.3196 N   0  0  0  0  0  0  0  0  0  0  0  0
    3.2873    7.8832   -4.3935 C   0  0  0  0  0  0  0  0  0  0  0  0
    3.8298    7.8150   -5.5232 O   0  0  0  0  0  0  0  0  0  0  0  0
    4.0508    8.3619   -3.2157 C   0  0  0  0  0  0  0  0  0  0  0  0
    5.4584    8.6525   -3.6609 C   0  0  2  0  0  0  0  0  0  0  0  0
    6.3655    7.5274   -3.3164 C   0  0  0  0  0  0  0  0  0  0  0  0
    5.8646    6.6178   -2.5608 O   0  0  0  0  0  0  0  0  0  0  0  0
    7.7166    7.3370   -3.7214 N   0  0  0  0  0  0  0  0  0  0  0  0
    8.6645    8.3416   -4.0620 C   0  0  0  0  0  0  0  0  0  0  0  0
    9.8100    7.8225   -4.5655 C   0  0  0  0  0  0  0  0  0  0  0  0
   10.8150    8.7005   -4.9348 C   0  0  0  0  0  0  0  0  0  0  0  0
   11.9846    8.1965   -5.4475 O   0  0  0  0  0  0  0  0  0  0  0  0
   12.1196    6.8075   -5.6422 C   0  0  0  0  0  0  0  0  0  0  0  0
   10.6436   10.0816   -4.7886 C   0  0  0  0  0  0  0  0  0  0  0  0
   11.6961   10.8987   -5.1809 O   0  0  0  0  0  0  0  0  0  0  0  0
   11.4141   12.0014   -6.0183 C   0  0  0  0  0  0  0  0  0  0  0  0
    9.4811   10.5933   -4.2785 C   0  0  0  0  0  0  0  0  0  0  0  0
    8.4858    9.7151   -3.9133 C   0  0  0  0  0  0  0  0  0  0  0  0
    7.2860   10.3851   -3.3799 C   0  0  0  0  0  0  0  0  0  0  0  0
    7.4882   11.5822   -2.9758 O   0  0  0  0  0  0  0  0  0  0  0  0
    5.9406    9.9440   -3.2318 N   0  0  0  0  0  0  0  0  0  0  0  0
    5.0270   10.8838   -2.5991 C   0  0  0  0  0  0  0  0  0  0  0  0
    5.0876   10.8880   -1.1131 C   0  0  1  0  0  0  0  0  0  0  0  0
    6.3035   11.5028   -0.7754 F   0  0  0  0  0  0  0  0  0  0  0  0
    4.1196   11.6963   -0.5363 F   0  0  0  0  0  0  0  0  0  0  0  0
  1  2  1  6
  2  3  1  0
  3  4  2  0
  5  3  1  6
  5  6  1  0
  6  7  1  0
  7  8  2  0
  7  9  1  0
  9 10  1  0
 10 11  2  0
 11 12  1  0
 12 13  1  0
 14 13  1  1
 12 15  2  0
 15 16  1  0
 17 16  1  6
 15 18  1  0
 18 19  2  0
 19 20  1  0
 20 21  2  0
 20 22  1  0
 23 22  1  1
 23 24  1  0
 24 25  1  6
 24 26  1  0
  6 22  1  1
 19 10  1  0
M  END
$$$$
