_rank8
     RDKit          3D

 26 27  0  0  0  0  0  0  0  0999 V2000
    1.7905   10.5656   -3.1752 C   0  0  0  0  0  0  0  0  0  0  0  0
    2.4702    9.3593   -2.7473 N   0  0  0  0  0  0  0  0  0  0  0  0
    3.2774    8.5723   -3.6234 C   0  0  0  0  0  0  0  0  0  0  0  0
    2.7565    8.2410   -4.7162 O   0  0  0  0  0  0  0  0  0  0  0  0
    4.6597    8.1540   -3.2871 C   0  0  0  0  0  0  0  0  0  0  0  0
    5.2462    7.4733   -4.4940 C   0  0  2  0  0  0  0  0  0  0  0  0
    5.6119    6.0673   -4.1832 C   0  0  0  0  0  0  0  0  0  0  0  0
    5.5494    5.7350   -2.9443 O   0  0  0  0  0  0  0  0  0  0  0  0
    6.0211    5.0487   -5.0892 N   0  0  0  0  0  0  0  0  0  0  0  0
    6.6792    5.2195   -6.3387 C   0  0  0  0  0  0  0  0  0  0  0  0
    6.7789    4.0608   -7.0336 C   0  0  0  0  0  0  0  0  0  0  0  0
    7.4029    4.0946   -8.2691 C   0  0  0  0  0  0  0  0  0  0  0  0
    7.5152    2.9321   -8.9908 O   0  0  0  0  0  0  0  0  0  0  0  0
    6.3577    2.1950   -9.3104 C   0  0  0  0  0  0  0  0  0  0  0  0
    7.9126    5.2948   -8.7771 C   0  0  0  0  0  0  0  0  0  0  0  0
    8.5250    5.2497  -10.0230 O   0  0  0  0  0  0  0  0  0  0  0  0
    9.9341    5.1580  -10.0758 C   0  0  0  0  0  0  0  0  0  0  0  0
    7.8054    6.4588   -8.0649 C   0  0  0  0  0  0  0  0  0  0  0  0
    7.1839    6.4184   -6.8373 C   0  0  0  0  0  0  0  0  0  0  0  0
    7.1297    7.7314   -6.1694 C   0  0  0  0  0  0  0  0  0  0  0  0
    7.9765    8.5820   -6.6127 O   0  0  0  0  0  0  0  0  0  0  0  0
    6.3063    8.2279   -5.1196 N   0  0  0  0  0  0  0  0  0  0  0  0
    6.5871    9.5854   -4.6762 C   0  0  0  0  0  0  0  0  0  0  0  0
    7.2848    9.6675   -3.3652 C   0  0  1  0  0  0  0  0  0  0  0  0
    8.0606   10.8365   -3.4104 F   0  0  0  0  0  0  0  0  0  0  0  0
    6.4157    9.8702   -2.3038 F   0  0  0  0  0  0  0  0  0  0  0  0
  1  2  1  6
  2  3  1  0
  3  4  2  0
  5  3  1  6
  5  6  1  0
  6  7  1  0
  7  8  2  0
  7  9  1  0
  9 10  1  0
 10 11  2  0
 11 12  1  0
 12 13  1  0
 14 13  1  1
 12 15  2  0
 15 16  1  0
 17 16  1  6
 15 18  1  0
 18 19  2  0
 19 20  1  0
 20 21  2  0
 20 22  1  0
 23 22  1  1
 23 24  1  0
 24 25  1  6
 24 26  1  0
  6 22  1  1
 19 10  1  0
M  END
$$$$
