_rank8
     RDKit          3D

 24 26  0  0  0  0  0  0  0  0999 V2000
    1.9533    6.9968   -5.4409 C   0  0  0  0  0  0  0  0  0  0  0  0
    3.1737    6.2908   -4.9368 C   0  0  0  0  0  0  0  0  0  0  0  0
    4.2083    6.9848   -4.4890 C   0  0  0  0  0  0  0  0  0  0  0  0
    4.1156    8.4649   -4.5047 C   0  0  0  0  0  0  0  0  0  0  0  0
    5.3638    8.9913   -3.9164 N   0  0  0  0  0  0  0  0  0  0  0  0
    5.3261   10.0091   -2.9380 C   0  0  0  0  0  0  0  0  0  0  0  0
    4.1698   10.5665   -2.8083 O   0  0  0  0  0  0  0  0  0  0  0  0
    6.4309   10.4559   -2.1073 C   0  0  0  0  0  0  0  0  0  0  0  0
    6.1364   11.1146   -0.9069 C   0  0  0  0  0  0  0  0  0  0  0  0
    7.1269   11.5578   -0.0843 C   0  0  0  0  0  0  0  0  0  0  0  0
    6.8502   12.2004    1.0869 F   0  0  0  0  0  0  0  0  0  0  0  0
    8.4648   11.3853   -0.3825 C   0  0  0  0  0  0  0  0  0  0  0  0
    9.4510   11.8237    0.4315 F   0  0  0  0  0  0  0  0  0  0  0  0
    8.7890   10.7426   -1.5533 C   0  0  0  0  0  0  0  0  0  0  0  0
    7.7607   10.2995   -2.3763 C   0  0  0  0  0  0  0  0  0  0  0  0
    8.1316    9.6761   -3.5112 F   0  0  0  0  0  0  0  0  0  0  0  0
    5.3831    6.3428   -4.0031 N   0  0  0  0  0  0  0  0  0  0  0  0
    5.4906    4.9494   -3.9797 N   0  0  0  0  0  0  0  0  0  0  0  0
    6.4558    4.1070   -3.5855 N   0  0  0  0  0  0  0  0  0  0  0  0
    6.0592    2.8353   -3.7730 C   0  0  0  0  0  0  0  0  0  0  0  0
    6.9952    1.3932   -3.4006 Cl  0  0  0  0  0  0  0  0  0  0  0  0
    4.8219    2.9184   -4.2942 N   0  0  0  0  0  0  0  0  0  0  0  0
    4.4544    4.2180   -4.4288 C   0  0  0  0  0  0  0  0  0  0  0  0
    3.2839    4.8732   -4.9127 N   0  0  0  0  0  0  0  0  0  0  0  0
  1  2  1  1
  2  3  2  0
  3  4  1  0
  4  5  1  1
  5  6  1  0
  6  7  2  0
  6  8  1  0
  8  9  2  0
  9 10  1  0
 10 11  1  0
 10 12  2  0
 12 13  1  0
 12 14  1  0
 14 15  2  0
 15 16  1  0
  3 17  1  0
 17 18  1  0
 18 19  1  0
 19 20  2  0
 20 21  1  0
 20 22  1  0
 22 23  2  0
 23 24  1  0
 24  2  1  0
 15  8  1  0
 23 18  1  0
M  END
$$$$
