_rank7
     RDKit          3D

 24 26  0  0  0  0  0  0  0  0999 V2000
    2.4047    7.4220   -6.3225 C   0  0  0  0  0  0  0  0  0  0  0  0
    3.4127    6.8676   -5.3640 C   0  0  0  0  0  0  0  0  0  0  0  0
    3.9344    7.6402   -4.4241 C   0  0  0  0  0  0  0  0  0  0  0  0
    3.4906    9.0538   -4.3564 C   0  0  0  0  0  0  0  0  0  0  0  0
    4.0361    9.6280   -3.1099 N   0  0  0  0  0  0  0  0  0  0  0  0
    5.2493   10.3512   -3.1202 C   0  0  0  0  0  0  0  0  0  0  0  0
    5.8540   10.3408   -4.2598 O   0  0  0  0  0  0  0  0  0  0  0  0
    5.8407   11.0701   -2.0051 C   0  0  0  0  0  0  0  0  0  0  0  0
    5.0741   12.0523   -1.3654 C   0  0  0  0  0  0  0  0  0  0  0  0
    5.5710   12.7611   -0.3141 C   0  0  0  0  0  0  0  0  0  0  0  0
    4.8322   13.7197    0.3155 F   0  0  0  0  0  0  0  0  0  0  0  0
    6.8458   12.5549    0.1769 C   0  0  0  0  0  0  0  0  0  0  0  0
    7.3427   13.2563    1.2202 F   0  0  0  0  0  0  0  0  0  0  0  0
    7.6252   11.5980   -0.4280 C   0  0  0  0  0  0  0  0  0  0  0  0
    7.0960   10.8878   -1.4989 C   0  0  0  0  0  0  0  0  0  0  0  0
    7.9000    9.9619   -2.0562 F   0  0  0  0  0  0  0  0  0  0  0  0
    4.8949    7.1427   -3.4977 N   0  0  0  0  0  0  0  0  0  0  0  0
    5.3264    5.8140   -3.5444 N   0  0  0  0  0  0  0  0  0  0  0  0
    6.1966    5.1026   -2.8143 N   0  0  0  0  0  0  0  0  0  0  0  0
    6.2554    3.8395   -3.2736 C   0  0  0  0  0  0  0  0  0  0  0  0
    7.2603    2.5484   -2.6271 Cl  0  0  0  0  0  0  0  0  0  0  0  0
    5.3964    3.7933   -4.3077 N   0  0  0  0  0  0  0  0  0  0  0  0
    4.8132    5.0053   -4.4892 C   0  0  0  0  0  0  0  0  0  0  0  0
    3.8521    5.5159   -5.4108 N   0  0  0  0  0  0  0  0  0  0  0  0
  1  2  1  1
  2  3  2  0
  3  4  1  0
  4  5  1  1
  5  6  1  0
  6  7  2  0
  6  8  1  0
  8  9  2  0
  9 10  1  0
 10 11  1  0
 10 12  2  0
 12 13  1  0
 12 14  1  0
 14 15  2  0
 15 16  1  0
  3 17  1  0
 17 18  1  0
 18 19  1  0
 19 20  2  0
 20 21  1  0
 20 22  1  0
 22 23  2  0
 23 24  1  0
 24  2  1  0
 15  8  1  0
 23 18  1  0
M  END
$$$$
