_rank10
     RDKit          3D

 24 26  0  0  0  0  0  0  0  0999 V2000
    3.3178    7.5795   -6.8356 C   0  0  0  0  0  0  0  0  0  0  0  0
    3.9288    6.8832   -5.6592 C   0  0  0  0  0  0  0  0  0  0  0  0
    4.5875    7.5753   -4.7429 C   0  0  0  0  0  0  0  0  0  0  0  0
    4.6966    9.0436   -4.9217 C   0  0  0  0  0  0  0  0  0  0  0  0
    5.6388    9.5434   -3.9001 N   0  0  0  0  0  0  0  0  0  0  0  0
    5.1631   10.1269   -2.7051 C   0  0  0  0  0  0  0  0  0  0  0  0
    3.8765   10.1571   -2.6147 O   0  0  0  0  0  0  0  0  0  0  0  0
    5.9674   10.6686   -1.6236 C   0  0  0  0  0  0  0  0  0  0  0  0
    7.0793   11.4547   -1.9512 C   0  0  0  0  0  0  0  0  0  0  0  0
    7.8732   11.9915   -0.9836 C   0  0  0  0  0  0  0  0  0  0  0  0
    8.9583   12.7585   -1.2926 F   0  0  0  0  0  0  0  0  0  0  0  0
    7.6307   11.7941    0.3620 C   0  0  0  0  0  0  0  0  0  0  0  0
    8.4163   12.3252    1.3254 F   0  0  0  0  0  0  0  0  0  0  0  0
    6.5472   11.0273    0.7185 C   0  0  0  0  0  0  0  0  0  0  0  0
    5.7520   10.4903   -0.2868 C   0  0  0  0  0  0  0  0  0  0  0  0
    4.7033    9.7469    0.1152 F   0  0  0  0  0  0  0  0  0  0  0  0
    5.1797    6.9423   -3.6128 N   0  0  0  0  0  0  0  0  0  0  0  0
    5.0884    5.5602   -3.4258 N   0  0  0  0  0  0  0  0  0  0  0  0
    5.5405    4.7277   -2.4775 N   0  0  0  0  0  0  0  0  0  0  0  0
    5.1784    3.4646   -2.7657 C   0  0  0  0  0  0  0  0  0  0  0  0
    5.5487    2.0369   -1.8070 Cl  0  0  0  0  0  0  0  0  0  0  0  0
    4.4901    3.5427   -3.9188 N   0  0  0  0  0  0  0  0  0  0  0  0
    4.4246    4.8310   -4.3411 C   0  0  0  0  0  0  0  0  0  0  0  0
    3.8363    5.4770   -5.4681 N   0  0  0  0  0  0  0  0  0  0  0  0
  1  2  1  1
  2  3  2  0
  3  4  1  0
  4  5  1  1
  5  6  1  0
  6  7  2  0
  6  8  1  0
  8  9  2  0
  9 10  1  0
 10 11  1  0
 10 12  2  0
 12 13  1  0
 12 14  1  0
 14 15  2  0
 15 16  1  0
  3 17  1  0
 17 18  1  0
 18 19  1  0
 19 20  2  0
 20 21  1  0
 20 22  1  0
 22 23  2  0
 23 24  1  0
 24  2  1  0
 15  8  1  0
 23 18  1  0
M  END
$$$$
